<?xml version="1.0" encoding="UTF-8"?>
<additional xmlns:xsi="http://www.w3.org/2001/XMLSchema-instance" xsi:noNamespaceSchemaLocation="http://sumo.dlr.de/xsd/additional_file.xsd">

    <poly id="RSU_0" color="0,255,0" fill="1" layer="100" type="rsu" shape="-5,-55 5,-55 5,-45 -5,-45">
        <param key="coverage_radius" value="500"/>
        <param key="id_num" value="0"/>
    </poly>

    <poly id="RSU_1" color="0,255,0" fill="1" layer="100" type="rsu" shape="1995,-55 2005,-55 2005,-45 1995,-45">
        <param key="coverage_radius" value="500"/>
        <param key="id_num" value="1"/>
    </poly>

    <poly id="RSU_2" color="0,255,0" fill="1" layer="100" type="rsu" shape="3995,-55 4005,-55 4005,-45 3995,-45">
        <param key="coverage_radius" value="500"/>
        <param key="id_num" value="2"/>
    </poly>

    <poly id="RSU_3" color="0,255,0" fill="1" layer="100" type="rsu" shape="5995,-55 6005,-55 6005,-45 5995,-45">
        <param key="coverage_radius" value="500"/>
        <param key="id_num" value="3"/>
    </poly>

    <poly id="RSU_4" color="0,255,0" fill="1" layer="100" type="rsu" shape="7995,-55 8005,-55 8005,-45 7995,-45">
        <param key="coverage_radius" value="500"/>
        <param key="id_num" value="4"/>
    </poly>

    <poly id="RSU_5" color="0,255,0" fill="1" layer="100" type="rsu" shape="9995,-55 10005,-55 10005,-45 9995,-45">
        <param key="coverage_radius" value="500"/>
        <param key="id_num" value="5"/>
    </poly>

    <poly id="POLICE_STATION" color="0,0,255" fill="1" layer="100" type="police" shape="2980,-820 3020,-820 3020,-780 2980,-780">
        <param key="capacity" value="10"/>
    </poly>

    <poly id="HOSPITAL" color="255,0,0" fill="1" layer="100" type="hospital" shape="6980,-820 7020,-820 7020,-780 6980,-780">
        <param key="capacity" value="5"/>
    </poly>

    <poly id="TRAFFIC_CONTROL" color="255,165,0" fill="1" layer="100" type="traffic_control" shape="4980,-820 5020,-820 5020,-780 4980,-780">
        <param key="monitoring_range" value="10000"/>
    </poly>

    <poly id="coverage_rsu_0" color="0,255,0,50" fill="1" layer="0" type="coverage" shape="-500,-550 500,-550 500,450 -500,450">
        <param key="rsu_id" value="0"/>
    </poly>
    <poly id="coverage_rsu_1" color="0,255,0,50" fill="1" layer="0" type="coverage" shape="1500,-550 2500,-550 2500,450 1500,450">
        <param key="rsu_id" value="1"/>
    </poly>
    <poly id="coverage_rsu_2" color="0,255,0,50" fill="1" layer="0" type="coverage" shape="3500,-550 4500,-550 4500,450 3500,450">
        <param key="rsu_id" value="2"/>
    </poly>
    <poly id="coverage_rsu_3" color="0,255,0,50" fill="1" layer="0" type="coverage" shape="5500,-550 6500,-550 6500,450 5500,450">
        <param key="rsu_id" value="3"/>
    </poly>
    <poly id="coverage_rsu_4" color="0,255,0,50" fill="1" layer="0" type="coverage" shape="7500,-550 8500,-550 8500,450 7500,450">
        <param key="rsu_id" value="4"/>
    </poly>
    <poly id="coverage_rsu_5" color="0,255,0,50" fill="1" layer="0" type="coverage" shape="9500,-550 10500,-550 10500,450 9500,450">
        <param key="rsu_id" value="5"/>
    </poly>
</additional>
