<?xml version="1.0" encoding="UTF-8"?>

<!-- generated on 2026-02-11T15:09:46.146989+05:30 by Eclipse SUMO netconvert v1_26_0+0143-96e13a6476d
<netconvertConfiguration xmlns:xsi="http://www.w3.org/2001/XMLSchema-instance" xsi:noNamespaceSchemaLocation="http://sumo.dlr.de/xsd/netconvertConfiguration.xsd">

    <input>
        <node-files value="highway.nod.xml"/>
        <edge-files value="highway.edg.xml"/>
    </input>

    <output>
        <output-file value="highway.net.xml"/>
    </output>

    <processing>
        <geometry.remove value="false"/>
    </processing>

    <junctions>
        <no-turnarounds value="true"/>
    </junctions>

</netconvertConfiguration>
-->

<net version="1.20" junctionCornerDetail="5" limitTurnSpeed="5.50" xmlns:xsi="http://www.w3.org/2001/XMLSchema-instance" xsi:noNamespaceSchemaLocation="http://sumo.dlr.de/xsd/net_file.xsd">

    <location netOffset="0.00,800.00" convBoundary="0.00,0.00,10000.00,1100.00" origBoundary="0.00,-800.00,10000.00,300.00" projParameter="!"/>

    <edge id=":hw_1km_0" function="internal">
        <lane id=":hw_1km_0_0" index="0" speed="33.33" length="0.10" shape="1000.00,811.20 1000.00,811.20"/>
        <lane id=":hw_1km_0_1" index="1" speed="33.33" length="0.10" shape="1000.00,808.00 1000.00,808.00"/>
        <lane id=":hw_1km_0_2" index="2" speed="33.33" length="0.10" shape="1000.00,804.80 1000.00,804.80"/>
        <lane id=":hw_1km_0_3" index="3" speed="33.33" length="0.10" shape="1000.00,801.60 1000.00,801.60"/>
    </edge>
    <edge id=":hw_1km_4" function="internal">
        <lane id=":hw_1km_4_0" index="0" speed="33.33" length="0.10" shape="1000.00,788.80 1000.00,788.80"/>
        <lane id=":hw_1km_4_1" index="1" speed="33.33" length="0.10" shape="1000.00,792.00 1000.00,792.00"/>
        <lane id=":hw_1km_4_2" index="2" speed="33.33" length="0.10" shape="1000.00,795.20 1000.00,795.20"/>
        <lane id=":hw_1km_4_3" index="3" speed="33.33" length="0.10" shape="1000.00,798.40 1000.00,798.40"/>
    </edge>
    <edge id=":hw_2km_0" function="internal">
        <lane id=":hw_2km_0_0" index="0" speed="33.33" length="21.17" shape="2017.19,811.20 1996.02,811.20"/>
        <lane id=":hw_2km_0_1" index="1" speed="33.33" length="21.17" shape="2017.19,808.00 1996.02,808.00"/>
        <lane id=":hw_2km_0_2" index="2" speed="33.33" length="21.17" shape="2017.19,804.80 1996.02,804.80"/>
        <lane id=":hw_2km_0_3" index="3" speed="33.33" length="21.17" shape="2017.19,801.60 1996.02,801.60"/>
    </edge>
    <edge id=":hw_2km_4" function="internal">
        <lane id=":hw_2km_4_0" index="0" speed="29.16" length="22.15" shape="2017.15,797.36 2013.38,799.04 2008.97,801.54 2003.36,803.81 1996.02,804.80"/>
        <lane id=":hw_2km_4_1" index="1" speed="29.16" length="22.15" shape="2017.15,797.36 2013.32,798.54 2008.81,799.94 2003.18,801.11 1996.02,801.60"/>
    </edge>
    <edge id=":hw_2km_6" function="internal">
        <lane id=":hw_2km_6_0" index="0" speed="4.82" length="9.00" shape="2017.15,797.36 2020.40,796.42 2021.50,795.74 2020.45,795.34 2017.24,795.20"/>
        <lane id=":hw_2km_6_1" index="1" speed="3.66" length="4.32" shape="2017.15,797.36 2015.59,797.82 2015.06,798.14 2015.57,798.34 2017.10,798.40"/>
    </edge>
    <edge id=":hw_2km_8" function="internal">
        <lane id=":hw_2km_8_0" index="0" speed="33.33" length="21.30" shape="1996.02,788.80 2017.53,788.80"/>
        <lane id=":hw_2km_8_1" index="1" speed="33.33" length="21.30" shape="1996.02,792.00 2017.39,792.00"/>
        <lane id=":hw_2km_8_2" index="2" speed="33.33" length="21.30" shape="1996.02,795.20 2017.24,795.20"/>
        <lane id=":hw_2km_8_3" index="3" speed="33.33" length="21.30" shape="1996.02,798.40 2017.10,798.40"/>
    </edge>
    <edge id=":hw_3km_0" function="internal">
        <lane id=":hw_3km_0_0" index="0" speed="33.33" length="20.80" shape="3010.40,811.20 2989.60,811.20"/>
        <lane id=":hw_3km_0_1" index="1" speed="33.33" length="20.80" shape="3010.40,808.00 2989.60,808.00"/>
        <lane id=":hw_3km_0_2" index="2" speed="33.33" length="20.80" shape="3010.40,804.80 2989.60,804.80"/>
        <lane id=":hw_3km_0_3" index="3" speed="33.33" length="20.80" shape="3010.40,801.60 2989.60,801.60"/>
    </edge>
    <edge id=":hw_3km_4" function="internal">
        <lane id=":hw_3km_4_0" index="0" speed="10.41" length="3.37" shape="3010.40,801.60 3007.11,800.88"/>
    </edge>
    <edge id=":hw_3km_14" function="internal">
        <lane id=":hw_3km_14_0" index="0" speed="10.41" length="21.36" shape="3007.11,800.88 3005.15,800.45 3001.40,797.00 2999.15,791.25 2998.40,783.20"/>
    </edge>
    <edge id=":hw_3km_5" function="internal">
        <lane id=":hw_3km_5_0" index="0" speed="6.51" length="9.03" shape="3004.80,783.20 3005.15,785.65 3006.20,787.40 3007.95,788.45 3010.40,788.80"/>
        <lane id=":hw_3km_5_1" index="1" speed="7.33" length="11.73" shape="3004.80,783.20 3005.15,787.05 3006.20,789.80 3007.95,791.45 3010.40,792.00"/>
    </edge>
    <edge id=":hw_3km_7" function="internal">
        <lane id=":hw_3km_7_0" index="0" speed="10.96" length="27.54" shape="3001.60,783.20 3000.85,792.65 2998.60,799.40 2994.85,803.45 2989.60,804.80"/>
        <lane id=":hw_3km_7_1" index="1" speed="10.41" length="24.73" shape="3001.60,783.20 3000.85,791.25 2998.60,797.00 2994.85,800.45 2989.60,801.60"/>
    </edge>
    <edge id=":hw_3km_9" function="internal">
        <lane id=":hw_3km_9_0" index="0" speed="6.51" length="9.03" shape="2989.60,788.80 2992.05,788.45 2993.80,787.40 2994.85,785.65 2995.20,783.20"/>
    </edge>
    <edge id=":hw_3km_10" function="internal">
        <lane id=":hw_3km_10_0" index="0" speed="33.33" length="20.80" shape="2989.60,788.80 3010.40,788.80"/>
        <lane id=":hw_3km_10_1" index="1" speed="33.33" length="20.80" shape="2989.60,792.00 3010.40,792.00"/>
        <lane id=":hw_3km_10_2" index="2" speed="33.33" length="20.80" shape="2989.60,795.20 3010.40,795.20"/>
        <lane id=":hw_3km_10_3" index="3" speed="33.33" length="20.80" shape="2989.60,798.40 3010.40,798.40"/>
    </edge>
    <edge id=":hw_4km_0" function="internal">
        <lane id=":hw_4km_0_0" index="0" speed="6.51" length="9.03" shape="4007.20,811.20 4004.75,811.55 4003.00,812.60 4001.95,814.35 4001.60,816.80"/>
    </edge>
    <edge id=":hw_4km_1" function="internal">
        <lane id=":hw_4km_1_0" index="0" speed="33.33" length="11.20" shape="4007.20,811.20 3996.00,811.20"/>
        <lane id=":hw_4km_1_1" index="1" speed="33.33" length="11.20" shape="4007.20,808.00 3996.00,808.00"/>
        <lane id=":hw_4km_1_2" index="2" speed="33.33" length="11.20" shape="4007.20,804.80 3996.00,804.80"/>
        <lane id=":hw_4km_1_3" index="3" speed="33.33" length="11.20" shape="4007.20,801.60 3996.00,801.60"/>
    </edge>
    <edge id=":hw_4km_5" function="internal">
        <lane id=":hw_4km_5_0" index="0" speed="33.33" length="11.20" shape="3996.00,788.80 4007.20,788.80"/>
        <lane id=":hw_4km_5_1" index="1" speed="33.33" length="11.20" shape="3996.00,792.00 4007.20,792.00"/>
        <lane id=":hw_4km_5_2" index="2" speed="33.33" length="11.20" shape="3996.00,795.20 4007.20,795.20"/>
        <lane id=":hw_4km_5_3" index="3" speed="33.33" length="11.20" shape="3996.00,798.40 4007.20,798.40"/>
    </edge>
    <edge id=":hw_4km_9" function="internal">
        <lane id=":hw_4km_9_0" index="0" speed="9.51" length="1.85" shape="3996.00,798.40 3997.67,799.19"/>
    </edge>
    <edge id=":hw_4km_10" function="internal">
        <lane id=":hw_4km_10_0" index="0" speed="9.51" length="18.63" shape="3997.67,799.19 3998.45,799.55 4000.20,803.00 4001.25,808.75 4001.60,816.80"/>
    </edge>
    <edge id=":hw_5km_0" function="internal">
        <lane id=":hw_5km_0_0" index="0" speed="33.33" length="20.80" shape="5010.40,811.20 4989.60,811.20"/>
        <lane id=":hw_5km_0_1" index="1" speed="33.33" length="20.80" shape="5010.40,808.00 4989.60,808.00"/>
        <lane id=":hw_5km_0_2" index="2" speed="33.33" length="20.80" shape="5010.40,804.80 4989.60,804.80"/>
        <lane id=":hw_5km_0_3" index="3" speed="33.33" length="20.80" shape="5010.40,801.60 4989.60,801.60"/>
    </edge>
    <edge id=":hw_5km_4" function="internal">
        <lane id=":hw_5km_4_0" index="0" speed="10.41" length="3.37" shape="5010.40,801.60 5007.11,800.88"/>
    </edge>
    <edge id=":hw_5km_14" function="internal">
        <lane id=":hw_5km_14_0" index="0" speed="10.41" length="21.36" shape="5007.11,800.88 5005.15,800.45 5001.40,797.00 4999.15,791.25 4998.40,783.20"/>
    </edge>
    <edge id=":hw_5km_5" function="internal">
        <lane id=":hw_5km_5_0" index="0" speed="6.51" length="9.03" shape="5004.80,783.20 5005.15,785.65 5006.20,787.40 5007.95,788.45 5010.40,788.80"/>
        <lane id=":hw_5km_5_1" index="1" speed="7.33" length="11.73" shape="5004.80,783.20 5005.15,787.05 5006.20,789.80 5007.95,791.45 5010.40,792.00"/>
    </edge>
    <edge id=":hw_5km_7" function="internal">
        <lane id=":hw_5km_7_0" index="0" speed="10.96" length="27.54" shape="5001.60,783.20 5000.85,792.65 4998.60,799.40 4994.85,803.45 4989.60,804.80"/>
        <lane id=":hw_5km_7_1" index="1" speed="10.41" length="24.73" shape="5001.60,783.20 5000.85,791.25 4998.60,797.00 4994.85,800.45 4989.60,801.60"/>
    </edge>
    <edge id=":hw_5km_9" function="internal">
        <lane id=":hw_5km_9_0" index="0" speed="6.51" length="9.03" shape="4989.60,788.80 4992.05,788.45 4993.80,787.40 4994.85,785.65 4995.20,783.20"/>
    </edge>
    <edge id=":hw_5km_10" function="internal">
        <lane id=":hw_5km_10_0" index="0" speed="33.33" length="20.80" shape="4989.60,788.80 5010.40,788.80"/>
        <lane id=":hw_5km_10_1" index="1" speed="33.33" length="20.80" shape="4989.60,792.00 5010.40,792.00"/>
        <lane id=":hw_5km_10_2" index="2" speed="33.33" length="20.80" shape="4989.60,795.20 5010.40,795.20"/>
        <lane id=":hw_5km_10_3" index="3" speed="33.33" length="20.80" shape="4989.60,798.40 5010.40,798.40"/>
    </edge>
    <edge id=":hw_6km_0" function="internal">
        <lane id=":hw_6km_0_0" index="0" speed="33.33" length="21.17" shape="6017.19,811.20 5996.02,811.20"/>
        <lane id=":hw_6km_0_1" index="1" speed="33.33" length="21.17" shape="6017.19,808.00 5996.02,808.00"/>
        <lane id=":hw_6km_0_2" index="2" speed="33.33" length="21.17" shape="6017.19,804.80 5996.02,804.80"/>
        <lane id=":hw_6km_0_3" index="3" speed="33.33" length="21.17" shape="6017.19,801.60 5996.02,801.60"/>
    </edge>
    <edge id=":hw_6km_4" function="internal">
        <lane id=":hw_6km_4_0" index="0" speed="29.16" length="22.15" shape="6017.15,797.36 6013.38,799.04 6008.97,801.54 6003.36,803.81 5996.02,804.80"/>
        <lane id=":hw_6km_4_1" index="1" speed="29.16" length="22.15" shape="6017.15,797.36 6013.32,798.54 6008.81,799.94 6003.18,801.11 5996.02,801.60"/>
    </edge>
    <edge id=":hw_6km_6" function="internal">
        <lane id=":hw_6km_6_0" index="0" speed="4.82" length="9.00" shape="6017.15,797.36 6020.40,796.42 6021.50,795.74 6020.45,795.34 6017.24,795.20"/>
        <lane id=":hw_6km_6_1" index="1" speed="3.66" length="4.32" shape="6017.15,797.36 6015.59,797.82 6015.06,798.14 6015.57,798.34 6017.10,798.40"/>
    </edge>
    <edge id=":hw_6km_8" function="internal">
        <lane id=":hw_6km_8_0" index="0" speed="33.33" length="21.30" shape="5996.02,788.80 6017.53,788.80"/>
        <lane id=":hw_6km_8_1" index="1" speed="33.33" length="21.30" shape="5996.02,792.00 6017.39,792.00"/>
        <lane id=":hw_6km_8_2" index="2" speed="33.33" length="21.30" shape="5996.02,795.20 6017.24,795.20"/>
        <lane id=":hw_6km_8_3" index="3" speed="33.33" length="21.30" shape="5996.02,798.40 6017.10,798.40"/>
    </edge>
    <edge id=":hw_7km_0" function="internal">
        <lane id=":hw_7km_0_0" index="0" speed="33.33" length="20.80" shape="7010.40,811.20 6989.60,811.20"/>
        <lane id=":hw_7km_0_1" index="1" speed="33.33" length="20.80" shape="7010.40,808.00 6989.60,808.00"/>
        <lane id=":hw_7km_0_2" index="2" speed="33.33" length="20.80" shape="7010.40,804.80 6989.60,804.80"/>
        <lane id=":hw_7km_0_3" index="3" speed="33.33" length="20.80" shape="7010.40,801.60 6989.60,801.60"/>
    </edge>
    <edge id=":hw_7km_4" function="internal">
        <lane id=":hw_7km_4_0" index="0" speed="10.41" length="3.37" shape="7010.40,801.60 7007.11,800.88"/>
    </edge>
    <edge id=":hw_7km_14" function="internal">
        <lane id=":hw_7km_14_0" index="0" speed="10.41" length="21.36" shape="7007.11,800.88 7005.15,800.45 7001.40,797.00 6999.15,791.25 6998.40,783.20"/>
    </edge>
    <edge id=":hw_7km_5" function="internal">
        <lane id=":hw_7km_5_0" index="0" speed="6.51" length="9.03" shape="7004.80,783.20 7005.15,785.65 7006.20,787.40 7007.95,788.45 7010.40,788.80"/>
        <lane id=":hw_7km_5_1" index="1" speed="7.33" length="11.73" shape="7004.80,783.20 7005.15,787.05 7006.20,789.80 7007.95,791.45 7010.40,792.00"/>
    </edge>
    <edge id=":hw_7km_7" function="internal">
        <lane id=":hw_7km_7_0" index="0" speed="10.96" length="27.54" shape="7001.60,783.20 7000.85,792.65 6998.60,799.40 6994.85,803.45 6989.60,804.80"/>
        <lane id=":hw_7km_7_1" index="1" speed="10.41" length="24.73" shape="7001.60,783.20 7000.85,791.25 6998.60,797.00 6994.85,800.45 6989.60,801.60"/>
    </edge>
    <edge id=":hw_7km_9" function="internal">
        <lane id=":hw_7km_9_0" index="0" speed="6.51" length="9.03" shape="6989.60,788.80 6992.05,788.45 6993.80,787.40 6994.85,785.65 6995.20,783.20"/>
    </edge>
    <edge id=":hw_7km_10" function="internal">
        <lane id=":hw_7km_10_0" index="0" speed="33.33" length="20.80" shape="6989.60,788.80 7010.40,788.80"/>
        <lane id=":hw_7km_10_1" index="1" speed="33.33" length="20.80" shape="6989.60,792.00 7010.40,792.00"/>
        <lane id=":hw_7km_10_2" index="2" speed="33.33" length="20.80" shape="6989.60,795.20 7010.40,795.20"/>
        <lane id=":hw_7km_10_3" index="3" speed="33.33" length="20.80" shape="6989.60,798.40 7010.40,798.40"/>
    </edge>
    <edge id=":hw_8km_0" function="internal">
        <lane id=":hw_8km_0_0" index="0" speed="6.51" length="9.03" shape="8007.20,811.20 8004.75,811.55 8003.00,812.60 8001.95,814.35 8001.60,816.80"/>
    </edge>
    <edge id=":hw_8km_1" function="internal">
        <lane id=":hw_8km_1_0" index="0" speed="33.33" length="11.20" shape="8007.20,811.20 7996.00,811.20"/>
        <lane id=":hw_8km_1_1" index="1" speed="33.33" length="11.20" shape="8007.20,808.00 7996.00,808.00"/>
        <lane id=":hw_8km_1_2" index="2" speed="33.33" length="11.20" shape="8007.20,804.80 7996.00,804.80"/>
        <lane id=":hw_8km_1_3" index="3" speed="33.33" length="11.20" shape="8007.20,801.60 7996.00,801.60"/>
    </edge>
    <edge id=":hw_8km_5" function="internal">
        <lane id=":hw_8km_5_0" index="0" speed="33.33" length="11.20" shape="7996.00,788.80 8007.20,788.80"/>
        <lane id=":hw_8km_5_1" index="1" speed="33.33" length="11.20" shape="7996.00,792.00 8007.20,792.00"/>
        <lane id=":hw_8km_5_2" index="2" speed="33.33" length="11.20" shape="7996.00,795.20 8007.20,795.20"/>
        <lane id=":hw_8km_5_3" index="3" speed="33.33" length="11.20" shape="7996.00,798.40 8007.20,798.40"/>
    </edge>
    <edge id=":hw_8km_9" function="internal">
        <lane id=":hw_8km_9_0" index="0" speed="9.51" length="1.85" shape="7996.00,798.40 7997.67,799.19"/>
    </edge>
    <edge id=":hw_8km_10" function="internal">
        <lane id=":hw_8km_10_0" index="0" speed="9.51" length="18.63" shape="7997.67,799.19 7998.45,799.55 8000.20,803.00 8001.25,808.75 8001.60,816.80"/>
    </edge>
    <edge id=":hw_9km_0" function="internal">
        <lane id=":hw_9km_0_0" index="0" speed="33.33" length="0.10" shape="9000.00,811.20 9000.04,811.20"/>
        <lane id=":hw_9km_0_1" index="1" speed="33.33" length="0.10" shape="9000.00,808.00 9000.04,808.00"/>
        <lane id=":hw_9km_0_2" index="2" speed="33.33" length="0.10" shape="9000.00,804.80 9000.04,804.80"/>
        <lane id=":hw_9km_0_3" index="3" speed="33.33" length="0.10" shape="9000.00,801.60 9000.04,801.60"/>
    </edge>
    <edge id=":hw_9km_4" function="internal">
        <lane id=":hw_9km_4_0" index="0" speed="33.33" length="0.10" shape="9000.04,788.80 9000.00,788.80"/>
        <lane id=":hw_9km_4_1" index="1" speed="33.33" length="0.10" shape="9000.04,792.00 9000.00,792.00"/>
        <lane id=":hw_9km_4_2" index="2" speed="33.33" length="0.10" shape="9000.04,795.20 9000.00,795.20"/>
        <lane id=":hw_9km_4_3" index="3" speed="33.33" length="0.10" shape="9000.04,798.40 9000.00,798.40"/>
    </edge>
    <edge id=":offramp_4km_split_0" function="internal">
        <lane id=":offramp_4km_split_0_0" index="0" speed="7.61" length="4.91" shape="4001.60,842.26 4001.63,843.44 4001.79,844.25 4002.17,844.99 4002.89,845.93"/>
        <lane id=":offramp_4km_split_0_1" index="1" speed="9.03" length="4.91" shape="4001.60,842.26 4000.39,847.92"/>
    </edge>
    <edge id=":offramp_8km_split_0" function="internal">
        <lane id=":offramp_8km_split_0_0" index="0" speed="7.61" length="4.91" shape="8001.60,842.26 8001.63,843.44 8001.79,844.25 8002.17,844.99 8002.89,845.93"/>
        <lane id=":offramp_8km_split_0_1" index="1" speed="9.03" length="4.91" shape="8001.60,842.26 8000.39,847.92"/>
    </edge>
    <edge id=":onramp_2km_merge_0" function="internal">
        <lane id=":onramp_2km_merge_0_0" index="0" speed="5.78" length="9.16" shape="2198.75,745.88 2200.13,748.19 2200.22,750.07 2199.01,751.52 2196.51,752.52"/>
    </edge>
    <edge id=":onramp_6km_merge_0" function="internal">
        <lane id=":onramp_6km_merge_0_0" index="0" speed="5.78" length="9.16" shape="6198.75,745.88 6200.13,748.19 6200.22,750.07 6199.01,751.52 6196.51,752.52"/>
    </edge>

    <edge id="hospital_to_hw" from="hospital" to="hw_7km" priority="4">
        <lane id="hospital_to_hw_0" index="0" speed="22.22" length="783.20" shape="7004.80,0.00 7004.80,783.20"/>
        <lane id="hospital_to_hw_1" index="1" speed="22.22" length="783.20" shape="7001.60,0.00 7001.60,783.20"/>
    </edge>
    <edge id="hw_0_1" from="hw_start" to="hw_1km" priority="5" spreadType="center" shape="-0.04,793.60 1000.00,793.60">
        <lane id="hw_0_1_0" index="0" speed="33.33" length="1000.04" shape="-0.04,788.80 1000.00,788.80"/>
        <lane id="hw_0_1_1" index="1" speed="33.33" length="1000.04" shape="-0.04,792.00 1000.00,792.00"/>
        <lane id="hw_0_1_2" index="2" speed="33.33" length="1000.04" shape="-0.04,795.20 1000.00,795.20"/>
        <lane id="hw_0_1_3" index="3" speed="33.33" length="1000.04" shape="-0.04,798.40 1000.00,798.40"/>
    </edge>
    <edge id="hw_10_9" from="hw_end" to="hw_9km" priority="5" spreadType="center" shape="10000.04,806.40 9000.00,806.40">
        <lane id="hw_10_9_0" index="0" speed="33.33" length="1000.04" shape="10000.04,811.20 9000.00,811.20"/>
        <lane id="hw_10_9_1" index="1" speed="33.33" length="1000.04" shape="10000.04,808.00 9000.00,808.00"/>
        <lane id="hw_10_9_2" index="2" speed="33.33" length="1000.04" shape="10000.04,804.80 9000.00,804.80"/>
        <lane id="hw_10_9_3" index="3" speed="33.33" length="1000.04" shape="10000.04,801.60 9000.00,801.60"/>
    </edge>
    <edge id="hw_1_0" from="hw_1km" to="hw_start" priority="5" spreadType="center" shape="1000.00,806.40 -0.04,806.40">
        <lane id="hw_1_0_0" index="0" speed="33.33" length="1000.04" shape="1000.00,811.20 -0.04,811.20"/>
        <lane id="hw_1_0_1" index="1" speed="33.33" length="1000.04" shape="1000.00,808.00 -0.04,808.00"/>
        <lane id="hw_1_0_2" index="2" speed="33.33" length="1000.04" shape="1000.00,804.80 -0.04,804.80"/>
        <lane id="hw_1_0_3" index="3" speed="33.33" length="1000.04" shape="1000.00,801.60 -0.04,801.60"/>
    </edge>
    <edge id="hw_1_2" from="hw_1km" to="hw_2km" priority="5" spreadType="center" shape="1000.00,793.60 2000.04,793.60">
        <lane id="hw_1_2_0" index="0" speed="33.33" length="996.02" shape="1000.00,788.80 1996.02,788.80"/>
        <lane id="hw_1_2_1" index="1" speed="33.33" length="996.02" shape="1000.00,792.00 1996.02,792.00"/>
        <lane id="hw_1_2_2" index="2" speed="33.33" length="996.02" shape="1000.00,795.20 1996.02,795.20"/>
        <lane id="hw_1_2_3" index="3" speed="33.33" length="996.02" shape="1000.00,798.40 1996.02,798.40"/>
    </edge>
    <edge id="hw_2_1" from="hw_2km" to="hw_1km" priority="5" spreadType="center" shape="2000.04,806.40 1000.00,806.40">
        <lane id="hw_2_1_0" index="0" speed="33.33" length="996.02" shape="1996.02,811.20 1000.00,811.20"/>
        <lane id="hw_2_1_1" index="1" speed="33.33" length="996.02" shape="1996.02,808.00 1000.00,808.00"/>
        <lane id="hw_2_1_2" index="2" speed="33.33" length="996.02" shape="1996.02,804.80 1000.00,804.80"/>
        <lane id="hw_2_1_3" index="3" speed="33.33" length="996.02" shape="1996.02,801.60 1000.00,801.60"/>
    </edge>
    <edge id="hw_2_3" from="hw_2km" to="hw_3km" priority="5" spreadType="center" shape="2000.00,793.60 3000.04,793.60">
        <lane id="hw_2_3_0" index="0" speed="33.33" length="972.28" shape="2017.53,788.80 2989.60,788.80"/>
        <lane id="hw_2_3_1" index="1" speed="33.33" length="972.28" shape="2017.39,792.00 2989.60,792.00"/>
        <lane id="hw_2_3_2" index="2" speed="33.33" length="972.28" shape="2017.24,795.20 2989.60,795.20"/>
        <lane id="hw_2_3_3" index="3" speed="33.33" length="972.28" shape="2017.10,798.40 2989.60,798.40"/>
    </edge>
    <edge id="hw_3_2" from="hw_3km" to="hw_2km" priority="5" spreadType="center" shape="3000.04,806.40 2000.00,806.40">
        <lane id="hw_3_2_0" index="0" speed="33.33" length="972.41" shape="2989.60,811.20 2017.19,811.20"/>
        <lane id="hw_3_2_1" index="1" speed="33.33" length="972.41" shape="2989.60,808.00 2017.19,808.00"/>
        <lane id="hw_3_2_2" index="2" speed="33.33" length="972.41" shape="2989.60,804.80 2017.19,804.80"/>
        <lane id="hw_3_2_3" index="3" speed="33.33" length="972.41" shape="2989.60,801.60 2017.19,801.60"/>
    </edge>
    <edge id="hw_3_4" from="hw_3km" to="hw_4km" priority="5" spreadType="center" shape="3000.00,793.60 4000.04,793.60">
        <lane id="hw_3_4_0" index="0" speed="33.33" length="985.60" shape="3010.40,788.80 3996.00,788.80"/>
        <lane id="hw_3_4_1" index="1" speed="33.33" length="985.60" shape="3010.40,792.00 3996.00,792.00"/>
        <lane id="hw_3_4_2" index="2" speed="33.33" length="985.60" shape="3010.40,795.20 3996.00,795.20"/>
        <lane id="hw_3_4_3" index="3" speed="33.33" length="985.60" shape="3010.40,798.40 3996.00,798.40"/>
    </edge>
    <edge id="hw_4_3" from="hw_4km" to="hw_3km" priority="5" spreadType="center" shape="4000.04,806.40 3000.00,806.40">
        <lane id="hw_4_3_0" index="0" speed="33.33" length="985.60" shape="3996.00,811.20 3010.40,811.20"/>
        <lane id="hw_4_3_1" index="1" speed="33.33" length="985.60" shape="3996.00,808.00 3010.40,808.00"/>
        <lane id="hw_4_3_2" index="2" speed="33.33" length="985.60" shape="3996.00,804.80 3010.40,804.80"/>
        <lane id="hw_4_3_3" index="3" speed="33.33" length="985.60" shape="3996.00,801.60 3010.40,801.60"/>
    </edge>
    <edge id="hw_4_5" from="hw_4km" to="hw_5km" priority="5" spreadType="center" shape="4000.00,793.60 5000.04,793.60">
        <lane id="hw_4_5_0" index="0" speed="33.33" length="982.40" shape="4007.20,788.80 4989.60,788.80"/>
        <lane id="hw_4_5_1" index="1" speed="33.33" length="982.40" shape="4007.20,792.00 4989.60,792.00"/>
        <lane id="hw_4_5_2" index="2" speed="33.33" length="982.40" shape="4007.20,795.20 4989.60,795.20"/>
        <lane id="hw_4_5_3" index="3" speed="33.33" length="982.40" shape="4007.20,798.40 4989.60,798.40"/>
    </edge>
    <edge id="hw_5_4" from="hw_5km" to="hw_4km" priority="5" spreadType="center" shape="5000.04,806.40 4000.00,806.40">
        <lane id="hw_5_4_0" index="0" speed="33.33" length="982.40" shape="4989.60,811.20 4007.20,811.20"/>
        <lane id="hw_5_4_1" index="1" speed="33.33" length="982.40" shape="4989.60,808.00 4007.20,808.00"/>
        <lane id="hw_5_4_2" index="2" speed="33.33" length="982.40" shape="4989.60,804.80 4007.20,804.80"/>
        <lane id="hw_5_4_3" index="3" speed="33.33" length="982.40" shape="4989.60,801.60 4007.20,801.60"/>
    </edge>
    <edge id="hw_5_6" from="hw_5km" to="hw_6km" priority="5" spreadType="center" shape="5000.00,793.60 6000.04,793.60">
        <lane id="hw_5_6_0" index="0" speed="33.33" length="985.62" shape="5010.40,788.80 5996.02,788.80"/>
        <lane id="hw_5_6_1" index="1" speed="33.33" length="985.62" shape="5010.40,792.00 5996.02,792.00"/>
        <lane id="hw_5_6_2" index="2" speed="33.33" length="985.62" shape="5010.40,795.20 5996.02,795.20"/>
        <lane id="hw_5_6_3" index="3" speed="33.33" length="985.62" shape="5010.40,798.40 5996.02,798.40"/>
    </edge>
    <edge id="hw_6_5" from="hw_6km" to="hw_5km" priority="5" spreadType="center" shape="6000.04,806.40 5000.00,806.40">
        <lane id="hw_6_5_0" index="0" speed="33.33" length="985.62" shape="5996.02,811.20 5010.40,811.20"/>
        <lane id="hw_6_5_1" index="1" speed="33.33" length="985.62" shape="5996.02,808.00 5010.40,808.00"/>
        <lane id="hw_6_5_2" index="2" speed="33.33" length="985.62" shape="5996.02,804.80 5010.40,804.80"/>
        <lane id="hw_6_5_3" index="3" speed="33.33" length="985.62" shape="5996.02,801.60 5010.40,801.60"/>
    </edge>
    <edge id="hw_6_7" from="hw_6km" to="hw_7km" priority="5" spreadType="center" shape="6000.00,793.60 7000.04,793.60">
        <lane id="hw_6_7_0" index="0" speed="33.33" length="972.28" shape="6017.53,788.80 6989.60,788.80"/>
        <lane id="hw_6_7_1" index="1" speed="33.33" length="972.28" shape="6017.39,792.00 6989.60,792.00"/>
        <lane id="hw_6_7_2" index="2" speed="33.33" length="972.28" shape="6017.24,795.20 6989.60,795.20"/>
        <lane id="hw_6_7_3" index="3" speed="33.33" length="972.28" shape="6017.10,798.40 6989.60,798.40"/>
    </edge>
    <edge id="hw_7_6" from="hw_7km" to="hw_6km" priority="5" spreadType="center" shape="7000.04,806.40 6000.00,806.40">
        <lane id="hw_7_6_0" index="0" speed="33.33" length="972.41" shape="6989.60,811.20 6017.19,811.20"/>
        <lane id="hw_7_6_1" index="1" speed="33.33" length="972.41" shape="6989.60,808.00 6017.19,808.00"/>
        <lane id="hw_7_6_2" index="2" speed="33.33" length="972.41" shape="6989.60,804.80 6017.19,804.80"/>
        <lane id="hw_7_6_3" index="3" speed="33.33" length="972.41" shape="6989.60,801.60 6017.19,801.60"/>
    </edge>
    <edge id="hw_7_8" from="hw_7km" to="hw_8km" priority="5" spreadType="center" shape="7000.00,793.60 8000.04,793.60">
        <lane id="hw_7_8_0" index="0" speed="33.33" length="985.60" shape="7010.40,788.80 7996.00,788.80"/>
        <lane id="hw_7_8_1" index="1" speed="33.33" length="985.60" shape="7010.40,792.00 7996.00,792.00"/>
        <lane id="hw_7_8_2" index="2" speed="33.33" length="985.60" shape="7010.40,795.20 7996.00,795.20"/>
        <lane id="hw_7_8_3" index="3" speed="33.33" length="985.60" shape="7010.40,798.40 7996.00,798.40"/>
    </edge>
    <edge id="hw_8_7" from="hw_8km" to="hw_7km" priority="5" spreadType="center" shape="8000.04,806.40 7000.00,806.40">
        <lane id="hw_8_7_0" index="0" speed="33.33" length="985.60" shape="7996.00,811.20 7010.40,811.20"/>
        <lane id="hw_8_7_1" index="1" speed="33.33" length="985.60" shape="7996.00,808.00 7010.40,808.00"/>
        <lane id="hw_8_7_2" index="2" speed="33.33" length="985.60" shape="7996.00,804.80 7010.40,804.80"/>
        <lane id="hw_8_7_3" index="3" speed="33.33" length="985.60" shape="7996.00,801.60 7010.40,801.60"/>
    </edge>
    <edge id="hw_8_9" from="hw_8km" to="hw_9km" priority="5" spreadType="center" shape="8000.00,793.60 9000.04,793.60">
        <lane id="hw_8_9_0" index="0" speed="33.33" length="992.84" shape="8007.20,788.80 9000.04,788.80"/>
        <lane id="hw_8_9_1" index="1" speed="33.33" length="992.84" shape="8007.20,792.00 9000.04,792.00"/>
        <lane id="hw_8_9_2" index="2" speed="33.33" length="992.84" shape="8007.20,795.20 9000.04,795.20"/>
        <lane id="hw_8_9_3" index="3" speed="33.33" length="992.84" shape="8007.20,798.40 9000.04,798.40"/>
    </edge>
    <edge id="hw_9_10" from="hw_9km" to="hw_end" priority="5" spreadType="center" shape="9000.00,793.60 10000.04,793.60">
        <lane id="hw_9_10_0" index="0" speed="33.33" length="1000.04" shape="9000.00,788.80 10000.04,788.80"/>
        <lane id="hw_9_10_1" index="1" speed="33.33" length="1000.04" shape="9000.00,792.00 10000.04,792.00"/>
        <lane id="hw_9_10_2" index="2" speed="33.33" length="1000.04" shape="9000.00,795.20 10000.04,795.20"/>
        <lane id="hw_9_10_3" index="3" speed="33.33" length="1000.04" shape="9000.00,798.40 10000.04,798.40"/>
    </edge>
    <edge id="hw_9_8" from="hw_9km" to="hw_8km" priority="5" spreadType="center" shape="9000.04,806.40 8000.00,806.40">
        <lane id="hw_9_8_0" index="0" speed="33.33" length="992.84" shape="9000.04,811.20 8007.20,811.20"/>
        <lane id="hw_9_8_1" index="1" speed="33.33" length="992.84" shape="9000.04,808.00 8007.20,808.00"/>
        <lane id="hw_9_8_2" index="2" speed="33.33" length="992.84" shape="9000.04,804.80 8007.20,804.80"/>
        <lane id="hw_9_8_3" index="3" speed="33.33" length="992.84" shape="9000.04,801.60 8007.20,801.60"/>
    </edge>
    <edge id="hw_to_hospital" from="hw_7km" to="hospital" priority="4">
        <lane id="hw_to_hospital_0" index="0" speed="22.22" length="783.20" shape="6995.20,783.20 6995.20,0.00"/>
        <lane id="hw_to_hospital_1" index="1" speed="22.22" length="783.20" shape="6998.40,783.20 6998.40,0.00"/>
    </edge>
    <edge id="hw_to_police" from="hw_3km" to="police_station" priority="4">
        <lane id="hw_to_police_0" index="0" speed="22.22" length="783.20" shape="2995.20,783.20 2995.20,0.00"/>
        <lane id="hw_to_police_1" index="1" speed="22.22" length="783.20" shape="2998.40,783.20 2998.40,0.00"/>